18629-1
                    3D
 Structure written by MMmdl.
This invalidates this SDF 41 42  0  0  1  0            999 V2000
   24.0510   12.2016   C   0  0  0  0  0  0
   23.3159   10.8864   30.5326 C   0  0  0  0  0  0
   22.1655   11.1828   31.3207 O   0  0  0  0  0  0
   21.3477   10.1523   31.7514 C   0  0  0  0  0  0
   21.6919    8.8874   31.3853 N   0  0  0  0  0  0
   20.8972    7.8767   31.7648 C   0  0  0  0  0  0
   19.7610    8.0525   32.5388 C   0  0  0  0  0  0
   19.4157    9.3373   32.9151 C   0  0  0  0  0  0
   18.2588    9.4438   33.6763 N   0  0  0  0  0  0
   20.2113   10.4260   32.5218 C   0  0  0  0  0  0
   19.8989   11.8070   32.8723 C   0  0  0  0  0  0
   19.6587   12.9061   33.1464 N   0  0  0  0  0  0
   21.3873    6.6638   31.3301 N   0  0  0  0  0  0
   20.7487    5.5080   31.1215 C   0  0  0  0  0  0
   19.5319    5.3796   31.2433 O   0  0  0  0  0  0
   21.5762    4.2864   30.6944 C   0  0  0  0  0  0
   23.0915    4.4911   30.6827 C   0  0  0  0  0  0
   23.6888    5.3698   29.7694 C   0  0  0  0  0  0
   25.0671    5.5919   29.8016 C   0  0  0  0  0  0
   25.7101    6.5802   28.8490 C   0  0  0  0  0  0
   25.8566    4.9019   30.7231 C   0  0  0  0  0  0
18629-1
                    3D
 Structure written by MMmdl.
This invalidates this SDF 41 42  0  0  1  0            999 V2000
   24.0510   12.2016   C   0  0  0  0  0  0
   23.3159   10.8864   30.5326 C   0  0  0  0  0  0
   22.1655   11.1828   31.3207 O   0  0  0  0  0  0
   21.3477   10.1523   31.7514 C   0  0  0  0  0  0
   21.6919    8.8874   31.3853 N   0  0  0  0  0  0
   20.8972    7.8767   31.7648 C   0  0  0  0  0  0
   19.7610    8.0525   32.5388 C   0  0  0  0  0  0
   19.4157    9.3373   32.9151 C   0  0  0  0  0  0
   18.2588    9.4438   33.6763 N   0  0  0  0  0  0
   20.2113   10.4260   32.5218 C   0  0  0  0  0  0
   19.8989   11.8070   32.8723 C   0  0  0  0  0  0
   19.6587   12.9061   33.1464 N   0  0  0  0  0  0
   21.3873    6.6638   31.3301 N   0  0  0  0  0  0
   20.7487    5.5080   31.1215 C   0  0  0  0  0  0
   19.5319    5.3796   31.2433 O   0  0  0  0  0  0
   21.5762    4.2864   30.6944 C   0  0  0  0  0  0
   23.0915    4.4911   30.6827 C   0  0  0  0  0  0
   23.6888    5.3698   29.7694 C   0  0  0  0  0  0
   25.0671    5.5919   29.8016 C   0  0  0  0  0  0
   25.7101    6.5802   28.8490 C   0  0  0  0  0  0
   25.8566    4.9019   30.7231 C   0  0  0  0  0  0
